WARNING: The adjoint solver should use a non-dimensional flow solution.

-------------------------------------------------------------------------
|    ___ _   _ ___                                                      |
|   / __| | | |_  )   Release 8.5.0 "Harrier"                           |
|   \__ \ |_| |/ /                                                      |
|   |___/\___//___|   Suite (Computational Fluid Dynamics Code)         |
|                                                                       |
-------------------------------------------------------------------------
| SU2 Project Website: https://su2code.github.io                        |
|                                                                       |
| The SU2 Project is maintained by the SU2 Foundation                   |
| (http://su2foundation.org)                                            |
-------------------------------------------------------------------------
| Copyright 2012-2026, SU2 Contributors                                 |
|                                                                       |
| SU2 is free software; you can redistribute it and/or                  |
| modify it under the terms of the GNU Lesser General Public            |
| License as published by the Free Software Foundation; either          |
| version 2.1 of the License, or (at your option) any later version.    |
|                                                                       |
| SU2 is distributed in the hope that it will be useful,                |
| but WITHOUT ANY WARRANTY; without even the implied warranty of        |
| MERCHANTABILITY or FITNESS FOR A PARTICULAR PURPOSE. See the GNU      |
| Lesser General Public License for more details.                       |
|                                                                       |
| You should have received a copy of the GNU Lesser General Public      |
| License along with SU2. If not, see <http://www.gnu.org/licenses/>.   |
-------------------------------------------------------------------------
WARNING: The adjoint solver should use a non-dimensional flow solution.

Parsing config file for zone 0
WARNING: The adjoint solver should use a non-dimensional flow solution.

----------------- Physical Case Definition ( Zone 0 ) -------------------
Continuous Euler adjoint equations.
Mach number: 0.8.
Angle of attack (AoA): 1.25 deg, and angle of sideslip (AoS): 0 deg.
No restart solution, use the values at infinity (freestream).
Read flow solution from: solution_flow.
Dimensional simulation.
The reference area is 1 m^2.
The semi-span will be computed using the max y(3D) value.
The reference length is 1 m.
Reference origin for moment evaluation is (0.25, 0, 0).
Surface(s) where the force coefficients are evaluated: airfoil.

Surface(s) where the objective function is evaluated: airfoil.
Surface(s) plotted in the output file: airfoil.
Surface(s) affected by the design variables: airfoil.
Input mesh file name: mesh_NACA0012_inv.su2

---------------- Design problem definition  ( Zone 0 ) ------------------
CD objective function.

--------------- Space Numerical Integration ( Zone 0 ) ------------------
Jameson-Schmidt-Turkel scheme for the adjoint inviscid terms.
JST viscous coefficients (1st, 2nd, & 4th): 0.15, 0.5, 0.02.
The method includes a grid stretching correction (p = 0.3).
Second order integration.
The reference sharp edge distance is: 0.15. 
Gradient for viscous and source terms: inverse-distance weighted Least-Squares.

--------------- Time Numerical Integration  ( Zone 0 ) ------------------
Local time stepping (steady state simulation).
Euler implicit method for the adjoint equations.
W Multigrid Cycle, with 3 multigrid levels.
Damping factor for the residual restriction: 1.
Damping factor for the correction prolongation: 1.
No CFL adaptation.
+-------------------------------------------+
|  MG Level| Presmooth|PostSmooth|CorrectSmo|
+-------------------------------------------+
|         0|         1|         0|         0|
|         1|         2|         0|         0|
|         2|         3|         0|         0|
|         3|         3|         0|         0|
+-------------------------------------------+
Courant-Friedrichs-Lewy number:       10

------------------ Convergence Criteria  ( Zone 0 ) ---------------------
Maximum number of solver subiterations: 250.
Begin convergence monitoring at iteration 10.
Residual minimum value: 1e-8.
Cauchy series min. value: 1e-06.
Number of Cauchy elements: 100.
Begin windowed time average at iteration 0.

-------------------- Output Information ( Zone 0 ) ----------------------
File writing frequency: 
+------------------------------------+
|                     File| Frequency|
+------------------------------------+
|                  RESTART|       250|
|              SURFACE_CSV|       250|
+------------------------------------+
Writing the convergence history file every 1 inner iterations.
Writing the screen convergence history every 1 inner iterations.
The tabular file format is CSV (.csv).
Convergence history file name: history.
Forces breakdown file name: forces_breakdown.dat.
Adjoint solution file name: solution_adj.
Restart adjoint file name: restart_adj.
Adjoint variables file name: adjoint.
Surface adjoint file name: surface_adjoint.

------------- Config File Boundary Information ( Zone 0 ) ---------------
+-----------------------------------------------------------------------+
|                        Marker Type|                        Marker Name|
+-----------------------------------------------------------------------+
|                         Euler wall|                            airfoil|
+-----------------------------------------------------------------------+
|                          Far-field|                           farfield|
+-----------------------------------------------------------------------+

-------------------- Output Preprocessing ( Zone 0 ) --------------------
  Info: Ignoring the following screen output fields:
  LIFT, DRAG, CAUCHY_SENS_PRESS, CAUCHY_DRAG
Screen output fields: INNER_ITER, ITER_TIME, WALL_TIME, RMS_ADJ_DENSITY, RMS_ADJ_MOMENTUM-X, RMS_ADJ_MOMENTUM-Y, RMS_ADJ_ENERGY, RMS_ADJ_DENSITY, RMS_ADJ_ENERGY
History output group(s): ITER, RMS_RES, SENSITIVITY
Ignoring Convergence Field(s): RMS_DENSITY 
Warning: No (valid) fields chosen for convergence monitoring. Convergence monitoring inactive.
Warning: No (valid) fields chosen for time convergence monitoring. Time convergence monitoring inactive.
Volume output fields: COORDINATES, SOLUTION, SENSITIVITY

------------------- Geometry Preprocessing ( Zone 0 ) -------------------
Two dimensional problem.
5233 grid points.
10216 volume elements.
2 surface markers.
200 boundary elements in index 0 (Marker = airfoil).
50 boundary elements in index 1 (Marker = farfield).
10216 triangles.
Setting point connectivity.
Renumbering points (Reverse Cuthill McKee Ordering).
Recomputing point connectivity.
Setting element connectivity.
Checking the numerical grid orientation.
All volume elements are correctly oriented.
All surface elements are correctly oriented.
Identifying edges and vertices.
Setting the control volume structure.
Area of the computational grid: 1253.25.
Searching for the closest normal neighbors to the surfaces.
Storing a mapping from global to local point index.
Compute the surface curvature.
Max K: 7835.1. Mean K: 34.8252. Standard deviation K: 494.448.
Computing mesh quality statistics for the dual control volumes.
+--------------------------------------------------------------+
|           Mesh Quality Metric|        Minimum|        Maximum|
+--------------------------------------------------------------+
|    Orthogonality Angle (deg.)|        62.6714|        89.7089|
|     CV Face Area Aspect Ratio|        1.00001|        7.18337|
|           CV Sub-Volume Ratio|        1.00285|        6.47826|
+--------------------------------------------------------------+
Setting the multigrid structure. NMG=3
+-------------------------------------------+
|  MG Level|       CVs|Aggl. Rate|       CFL|
+-------------------------------------------+
|         0|      5233|    1/1.00|        10|
|         1|      1649|    1/3.17|   6.66667|

Euler Wall Agglomeration Statistics (45° curvature threshold):
----------------------------------------------------------------
  Marker: airfoil
    Seeds agglomerated:       99 (98.0%)
    Seeds rejected (>45° curv): 2 (2.0%)
----------------------------------------------------------------
|         2|       536|    1/3.08|  4.444444|

Euler Wall Agglomeration Statistics (45° curvature threshold):
----------------------------------------------------------------
  Marker: airfoil
    Seeds agglomerated:       49 (94.2%)
    Seeds rejected (>45° curv): 3 (5.8%)
----------------------------------------------------------------
MG level 3 has only 176 CVs (< MG_MIN_MESHSIZE=500). Reducing MG levels to 2.

Euler Wall Agglomeration Statistics (45° curvature threshold):
----------------------------------------------------------------
  Marker: airfoil
    Seeds agglomerated:       25 (92.6%)
    Seeds rejected (>45° curv): 2 (7.4%)
----------------------------------------------------------------
Finding max control volume width.
Wetted area = 2.0 m.
Area projection in the x-plane = 0.1 m, y-plane = 1.0 m.
Max. coordinate in the x-direction = 1.0 m, y-direction = 0.1 m.
Min. coordinate in the x-direction = 0.0 m, y-direction = -0.1 m.
Computing wall distances.

-------------------- Solver Preprocessing ( Zone 0 ) --------------------
Inviscid flow: Computing density based on free-stream
temperature and pressure using the ideal gas law.
Force coefficients computed using free-stream values.

-- Models:
+------------------------------------------------------------------------------+
|          Viscosity Model|        Conductivity Model|              Fluid Model|
+------------------------------------------------------------------------------+
|                        -|                         -|             STANDARD_AIR|
+------------------------------------------------------------------------------+
-- Fluid properties:
+------------------------------------------------------------------------------+
|                  Name|    Dim. value|    Ref. value|      Unit|Non-dim. value|
+------------------------------------------------------------------------------+
|          Gas Constant|       287.058|             1|  N.m/kg.K|       287.058|
|      Spec. Heat Ratio|             -|             -|         -|           1.4|
+------------------------------------------------------------------------------+
-- Initial and free-stream conditions:
+------------------------------------------------------------------------------+
|                  Name|    Dim. value|    Ref. value|      Unit|Non-dim. value|
+------------------------------------------------------------------------------+
|       Static Pressure|        101325|             1|        Pa|        101325|
|               Density|       1.29225|             1|    kg/m^3|       1.29225|
|           Temperature|        273.15|             1|         K|        273.15|
|          Total Energy|        231152|             1|   m^2/s^2|        231152|
|            Velocity-X|       264.994|             1|       m/s|       264.994|
|            Velocity-Y|       5.78219|             1|       m/s|       5.78219|
|    Velocity Magnitude|       265.057|             1|       m/s|       265.057|
+------------------------------------------------------------------------------+
|           Mach Number|             -|             -|         -|           0.8|
+------------------------------------------------------------------------------+
All ranks use edge coloring.
Among the ranks that use edge coloring,
         the minimum efficiency is 0.942932,
         the maximum number of colors is 2,
         the minimum edge color group size is 512.
Initialize Jacobian structure (Euler). MG level: 0.
Initialize Jacobian structure (Adjoint Euler). MG level: 0.
WARNING: On 1 MPI ranks the coloring efficiency was less than 0.875000 (min value was 0.588501).
         Those ranks will now use a fallback strategy, better performance may be possible
         with a different value of config option EDGE_COLORING_GROUP_SIZE (default 512).
Initialize Jacobian structure (Euler). MG level: 1.
Initialize Jacobian structure (Adjoint Euler). MG level: 1.
WARNING: On 1 MPI ranks the coloring efficiency was less than 0.875000 (min value was 0.250977).
         Those ranks will now use a fallback strategy, better performance may be possible
         with a different value of config option EDGE_COLORING_GROUP_SIZE (default 512).
Initialize Jacobian structure (Euler). MG level: 2.
Initialize Jacobian structure (Adjoint Euler). MG level: 2.

------------------- Numerics Preprocessing ( Zone 0 ) -------------------

----------------- Integration Preprocessing ( Zone 0 ) ------------------

------------------- Iteration Preprocessing ( Zone 0 ) ------------------
Adjoint Euler/Navier-Stokes/RANS fluid iteration.

------------------------------ Begin Solver -----------------------------

Simulation Run using the Single-zone Driver
Begin direct solver to store flow data (single iteration).
Compute residuals to check the convergence of the direct problem.
log10[Maximum residual]: -6.713278, located at point 306.
End direct solver, begin adjoint problem.
+--------------------------------------------------------------------------------------------------------------------+
|  Inner_Iter|   Time(sec)|   Time(sec)|  rms[A_Rho]| rms[A_RhoU]| rms[A_RhoV]|    rms[A_E]|  rms[A_Rho]|    rms[A_E]|
+--------------------------------------------------------------------------------------------------------------------+
|           0|    0.073246|  7.3246e-02|    0.661588|   -1.551082|   -2.044434|   -3.959485|    0.661588|   -3.959485|
|           1|    0.061240|  6.7243e-02|    0.690406|   -1.446319|   -1.365921|   -3.935992|    0.690406|   -3.935992|
|           2|    0.060095|  6.4860e-02|    0.689395|   -1.385145|   -1.255978|   -3.948983|    0.689395|   -3.948983|
|           3|    0.060895|  6.3869e-02|    0.748342|   -1.325518|   -1.199877|   -3.913140|    0.748342|   -3.913140|
|           4|    0.060869|  6.3269e-02|    0.974179|   -1.219019|   -1.348706|   -3.623204|    0.974179|   -3.623204|
|           5|    0.057801|  6.2358e-02|    0.903504|   -1.215465|   -1.102015|   -3.757681|    0.903504|   -3.757681|
|           6|    0.059956|  6.2015e-02|    0.961579|   -1.022079|   -0.931172|   -3.821127|    0.961579|   -3.821127|
|           7|    0.060429|  6.1816e-02|    1.012174|   -1.065041|   -0.936902|   -3.694039|    1.012174|   -3.694039|
|           8|    0.059860|  6.1599e-02|    1.102744|   -1.091136|   -0.955929|   -3.554155|    1.102744|   -3.554155|
|           9|    0.060112|  6.1450e-02|    1.155920|   -1.056381|   -0.922454|   -3.524380|    1.155920|   -3.524380|
|          10|    0.060707|  6.1383e-02|    1.204532|   -1.029998|   -0.891849|   -3.499537|    1.204532|   -3.499537|
|          11|    0.060462|  6.1306e-02|    1.283682|   -0.958773|   -0.835040|   -3.421727|    1.283682|   -3.421727|
|          12|    0.060236|  6.1224e-02|    1.341605|   -0.864286|   -0.859392|   -3.293922|    1.341605|   -3.293922|
|          13|    0.060629|  6.1181e-02|    1.430458|   -0.621088|   -0.733130|   -3.184806|    1.430458|   -3.184806|
|          14|    0.060265|  6.1120e-02|    1.452732|   -0.769029|   -0.768239|   -3.239943|    1.452732|   -3.239943|
|          15|    0.061536|  6.1146e-02|    1.630260|   -0.292025|   -0.420858|   -3.030857|    1.630260|   -3.030857|
|          16|    0.058903|  6.1014e-02|    1.728690|   -0.174686|   -0.282638|   -2.968210|    1.728690|   -2.968210|
|          17|    0.061068|  6.1017e-02|    1.642243|   -0.371702|   -0.488059|   -3.034448|    1.642243|   -3.034448|
|          18|    0.060405|  6.0985e-02|    1.836034|   -0.069800|   -0.172488|   -2.892354|    1.836034|   -2.892354|
|          19|    0.058128|  6.0842e-02|    1.856122|   -0.038532|   -0.146511|   -2.871217|    1.856122|   -2.871217|
|          20|    0.060672|  6.0834e-02|    1.842971|   -0.095053|   -0.213109|   -2.876171|    1.842971|   -2.876171|
|          21|    0.057724|  6.0693e-02|    1.969265|    0.102585|    0.002353|   -2.780754|    1.969265|   -2.780754|
|          22|    0.060971|  6.0705e-02|    1.968336|    0.007287|   -0.116092|   -2.790089|    1.968336|   -2.790089|
|          23|    0.059883|  6.0670e-02|    2.165946|    0.302013|    0.206917|   -2.649605|    2.165946|   -2.649605|
|          24|    0.060505|  6.0664e-02|    2.129226|    0.132184|    0.012250|   -2.619732|    2.129226|   -2.619732|
|          25|    0.060426|  6.0655e-02|    2.273690|    0.376986|    0.262671|   -2.514579|    2.273690|   -2.514579|
|          26|    0.057869|  6.0552e-02|    2.471402|    0.589230|    0.521863|   -2.405258|    2.471402|   -2.405258|
|          27|    0.060204|  6.0539e-02|    2.570856|    0.671606|    0.627839|   -2.330967|    2.570856|   -2.330967|
|          28|    0.060279|  6.0530e-02|    2.688743|    0.736369|    0.747576|   -2.212801|    2.688743|   -2.212801|
|          29|    0.060692|  6.0536e-02|    2.842867|    0.728195|    0.883990|   -1.967294|    2.842867|   -1.967294|
|          30|    0.060399|  6.0531e-02|    2.925892|    0.757600|    0.940338|   -1.856015|    2.925892|   -1.856015|
|          31|    0.060498|  6.0530e-02|    2.999431|    0.812617|    0.984837|   -1.787929|    2.999431|   -1.787929|
|          32|    0.055385|  6.0374e-02|    3.036867|    0.849980|    1.011023|   -1.747019|    3.036867|   -1.747019|
|          33|    0.057584|  6.0292e-02|    3.070862|    0.876270|    1.041194|   -1.737389|    3.070862|   -1.737389|
|          34|    0.060618|  6.0301e-02|    3.139645|    0.970684|    1.108859|   -1.612242|    3.139645|   -1.612242|
|          35|    0.060582|  6.0309e-02|    3.187101|    1.028577|    1.129536|   -1.567212|    3.187101|   -1.567212|
|          36|    0.060652|  6.0318e-02|    3.293476|    1.298228|    1.239875|   -1.425496|    3.293476|   -1.425496|
|          37|    0.060271|  6.0317e-02|    3.339222|    1.212433|    1.233610|   -1.436983|    3.339222|   -1.436983|
|          38|    0.060506|  6.0322e-02|    3.433204|    1.471104|    1.367135|   -1.300237|    3.433204|   -1.300237|
|          39|    0.060733|  6.0332e-02|    3.492448|    1.393099|    1.349774|   -1.301853|    3.492448|   -1.301853|
|          40|    0.061251|  6.0355e-02|    3.565525|    1.596221|    1.471555|   -1.190342|    3.565525|   -1.190342|
|          41|    0.060766|  6.0365e-02|    3.640554|    1.732626|    1.591338|   -1.111009|    3.640554|   -1.111009|
|          42|    0.060871|  6.0376e-02|    3.690551|    1.624327|    1.504697|   -1.147672|    3.690551|   -1.147672|
|          43|    0.060640|  6.0382e-02|    3.747569|    1.840685|    1.691209|   -1.034337|    3.747569|   -1.034337|
|          44|    0.060231|  6.0379e-02|    3.820604|    1.926698|    1.785700|   -0.964605|    3.820604|   -0.964605|
|          45|    0.060905|  6.0390e-02|    4.001080|    2.114765|    2.047859|   -0.805570|    4.001080|   -0.805570|
|          46|    0.060835|  6.0400e-02|    4.072300|    2.175005|    2.126630|   -0.742920|    4.072300|   -0.742920|
|          47|    0.060722|  6.0407e-02|    4.236845|    2.261662|    2.312908|   -0.575649|    4.236845|   -0.575649|
|          48|    0.059958|  6.0397e-02|    4.420109|    2.304394|    2.538098|   -0.347790|    4.420109|   -0.347790|
|          49|    0.058106|  6.0352e-02|    4.541813|    2.387725|    2.675126|   -0.219032|    4.541813|   -0.219032|
|          50|    0.060378|  6.0352e-02|    4.608868|    2.450607|    2.755239|   -0.144330|    4.608868|   -0.144330|
|          51|    0.060986|  6.0364e-02|    4.694194|    2.550191|    2.858706|   -0.063761|    4.694194|   -0.063761|
|          52|    0.061828|  6.0392e-02|    4.843408|    2.791276|    3.012655|    0.075772|    4.843408|    0.075772|
|          53|    0.060252|  6.0389e-02|    4.986423|    2.990551|    3.129484|    0.179499|    4.986423|    0.179499|
|          54|    0.058260|  6.0351e-02|    5.052615|    3.069825|    3.195859|    0.233424|    5.052615|    0.233424|
|          55|    0.060507|  6.0353e-02|    5.101255|    3.129345|    3.245478|    0.283449|    5.101255|    0.283449|
|          56|    0.060901|  6.0363e-02|    5.225661|    3.300122|    3.367707|    0.415277|    5.225661|    0.415277|
|          57|    0.060732|  6.0369e-02|    5.328911|    3.407328|    3.471208|    0.544482|    5.328911|    0.544482|
|          58|    0.060875|  6.0378e-02|    5.495956|    3.527795|    3.629510|    0.782108|    5.495956|    0.782108|
|          59|    0.060391|  6.0378e-02|    5.602505|    3.580334|    3.718133|    0.929284|    5.602505|    0.929284|
|          60|    0.060817|  6.0385e-02|    5.728890|    3.628168|    3.825792|    1.082672|    5.728890|    1.082672|
|          61|    0.060763|  6.0391e-02|    5.838636|    3.691517|    3.951521|    1.186120|    5.838636|    1.186120|
|          62|    0.060775|  6.0398e-02|    5.911227|    3.769256|    4.029271|    1.227923|    5.911227|    1.227923|
|          63|    0.060559|  6.0400e-02|    5.959097|    3.824791|    4.075011|    1.230828|    5.959097|    1.230828|
|          64|    0.060342|  6.0399e-02|    6.077335|    3.996961|    4.196448|    1.305433|    6.077335|    1.305433|
|          65|    0.060777|  6.0405e-02|    6.208946|    4.046917|    4.288118|    1.361580|    6.208946|    1.361580|
|          66|    0.059142|  6.0386e-02|    6.246877|    4.092168|    4.325031|    1.401741|    6.246877|    1.401741|
|          67|    0.061260|  6.0399e-02|    6.219271|    4.075373|    4.257346|    1.329405|    6.219271|    1.329405|
|          68|    0.058576|  6.0372e-02|    6.312870|    4.140841|    4.368811|    1.444283|    6.312870|    1.444283|
|          69|    0.060640|  6.0376e-02|    6.353187|    4.165524|    4.407894|    1.476607|    6.353187|    1.476607|
|          70|    0.059990|  6.0371e-02|    6.357778|    4.155144|    4.346834|    1.449557|    6.357778|    1.449557|
|          71|    0.060943|  6.0379e-02|    6.412269|    4.229730|    4.430694|    1.514550|    6.412269|    1.514550|
|          72|    0.060795|  6.0385e-02|    6.459782|    4.274944|    4.508445|    1.585946|    6.459782|    1.585946|
|          73|    0.060452|  6.0385e-02|    6.503723|    4.293470|    4.560079|    1.631088|    6.503723|    1.631088|
|          74|    0.060575|  6.0388e-02|    6.532859|    4.306226|    4.561695|    1.644658|    6.532859|    1.644658|
|          75|    0.061079|  6.0397e-02|    6.596200|    4.369754|    4.659654|    1.722455|    6.596200|    1.722455|
|          76|    0.060701|  6.0401e-02|    6.691343|    4.440647|    4.782400|    1.809191|    6.691343|    1.809191|
|          77|    0.061219|  6.0411e-02|    6.711835|    4.462176|    4.804504|    1.832075|    6.711835|    1.832075|
|          78|    0.060912|  6.0418e-02|    6.729589|    4.483186|    4.826908|    1.853057|    6.729589|    1.853057|
|          79|    0.060841|  6.0423e-02|    6.752713|    4.502057|    4.850620|    1.872578|    6.752713|    1.872578|
|          80|    0.061004|  6.0430e-02|    6.779568|    4.526586|    4.870223|    1.897384|    6.779568|    1.897384|
|          81|    0.061428|  6.0442e-02|    6.809896|    4.563745|    4.896613|    1.932701|    6.809896|    1.932701|
|          82|    0.060738|  6.0446e-02|    6.840989|    4.601135|    4.915927|    1.962220|    6.840989|    1.962220|
|          83|    0.060665|  6.0449e-02|    6.877107|    4.643078|    4.950531|    2.012684|    6.877107|    2.012684|
|          84|    0.060167|  6.0445e-02|    6.921347|    4.680781|    4.986932|    2.056929|    6.921347|    2.056929|
|          85|    0.060617|  6.0447e-02|    6.960396|    4.707807|    5.009468|    2.089719|    6.960396|    2.089719|
|          86|    0.060663|  6.0450e-02|    7.020125|    4.753247|    5.056736|    2.138486|    7.020125|    2.138486|
|          87|    0.060496|  6.0450e-02|    7.018639|    4.742120|    5.053711|    2.124561|    7.018639|    2.124561|
|          88|    0.061519|  6.0462e-02|    7.051308|    4.773190|    5.078544|    2.143559|    7.051308|    2.143559|
|          89|    0.060591|  6.0464e-02|    7.086535|    4.813242|    5.099654|    2.173846|    7.086535|    2.173846|
|          90|    0.060586|  6.0465e-02|    7.140010|    4.852116|    5.144057|    2.221213|    7.140010|    2.221213|
|          91|    0.060717|  6.0468e-02|    7.187458|    4.887015|    5.179284|    2.258783|    7.187458|    2.258783|
|          92|    0.060306|  6.0466e-02|    7.239501|    4.923731|    5.216043|    2.301309|    7.239501|    2.301309|
|          93|    0.060443|  6.0466e-02|    7.284846|    4.959687|    5.262365|    2.340112|    7.284846|    2.340112|
|          94|    0.060507|  6.0466e-02|    7.304180|    4.978369|    5.290419|    2.358898|    7.304180|    2.358898|
|          95|    0.060585|  6.0467e-02|    7.325382|    5.001882|    5.314801|    2.376974|    7.325382|    2.376974|
|          96|    0.060700|  6.0470e-02|    7.344825|    5.019464|    5.334165|    2.396212|    7.344825|    2.396212|
|          97|    0.059458|  6.0460e-02|    7.381523|    5.049662|    5.377503|    2.430025|    7.381523|    2.430025|
|          98|    0.059910|  6.0454e-02|    7.408365|    5.076351|    5.404335|    2.459786|    7.408365|    2.459786|
|          99|    0.060028|  6.0450e-02|    7.435979|    5.100892|    5.446312|    2.484449|    7.435979|    2.484449|
|         100|    0.061190|  6.0457e-02|    7.472229|    5.130773|    5.483615|    2.515009|    7.472229|    2.515009|
|         101|    0.061244|  6.0465e-02|    7.485205|    5.139261|    5.487404|    2.521795|    7.485205|    2.521795|
|         102|    0.061011|  6.0470e-02|    7.517325|    5.171820|    5.522894|    2.569605|    7.517325|    2.569605|
|         103|    0.061329|  6.0478e-02|    7.549436|    5.196287|    5.545324|    2.587456|    7.549436|    2.587456|
|         104|    0.061308|  6.0486e-02|    7.580478|    5.218633|    5.563509|    2.606881|    7.580478|    2.606881|
|         105|    0.064295|  6.0522e-02|    7.625391|    5.251344|    5.595994|    2.635462|    7.625391|    2.635462|
|         106|    0.063074|  6.0546e-02|    7.638128|    5.265727|    5.608312|    2.649613|    7.638128|    2.649613|
|         107|    0.061169|  6.0552e-02|    7.652130|    5.277312|    5.617339|    2.661404|    7.652130|    2.661404|
|         108|    0.060778|  6.0554e-02|    7.683079|    5.300703|    5.639846|    2.690647|    7.683079|    2.690647|
|         109|    0.061260|  6.0560e-02|    7.720802|    5.329973|    5.668924|    2.722733|    7.720802|    2.722733|
|         110|    0.061659|  6.0570e-02|    7.757587|    5.357000|    5.692528|    2.750218|    7.757587|    2.750218|
|         111|    0.060968|  6.0574e-02|    7.790441|    5.384447|    5.716143|    2.775941|    7.790441|    2.775941|
|         112|    0.061130|  6.0579e-02|    7.791132|    5.388557|    5.722337|    2.784428|    7.791132|    2.784428|
|         113|    0.058360|  6.0559e-02|    7.825662|    5.414721|    5.743288|    2.811959|    7.825662|    2.811959|
|         114|    0.060718|  6.0561e-02|    7.822810|    5.415671|    5.745301|    2.814017|    7.822810|    2.814017|
|         115|    0.060764|  6.0562e-02|    7.854007|    5.439951|    5.763710|    2.839026|    7.854007|    2.839026|
|         116|    0.061258|  6.0568e-02|    7.887733|    5.466936|    5.786420|    2.868309|    7.887733|    2.868309|
|         117|    0.061030|  6.0572e-02|    7.935513|    5.502598|    5.818861|    2.906444|    7.935513|    2.906444|
|         118|    0.060828|  6.0574e-02|    7.955615|    5.520262|    5.840614|    2.930970|    7.955615|    2.930970|
|         119|    0.061120|  6.0579e-02|    7.996681|    5.556086|    5.877086|    2.971427|    7.996681|    2.971427|
|         120|    0.061382|  6.0586e-02|    8.015627|    5.570653|    5.889916|    2.988244|    8.015627|    2.988244|
|         121|    0.061349|  6.0592e-02|    8.046531|    5.595482|    5.912872|    3.014449|    8.046531|    3.014449|
|         122|    0.062782|  6.0610e-02|    8.051226|    5.602018|    5.926091|    3.023289|    8.051226|    3.023289|
|         123|    0.058047|  6.0589e-02|    8.087919|    5.631553|    5.948992|    3.051514|    8.087919|    3.051514|
|         124|    0.061511|  6.0596e-02|    8.089961|    5.636147|    5.961516|    3.059890|    8.089961|    3.059890|
|         125|    0.060618|  6.0596e-02|    8.125796|    5.666759|    5.983814|    3.086345|    8.125796|    3.086345|
|         126|    0.063027|  6.0616e-02|    8.135974|    5.678032|    5.995488|    3.097555|    8.135974|    3.097555|
|         127|    0.062608|  6.0631e-02|    8.154803|    5.693851|    6.007926|    3.112376|    8.154803|    3.112376|
|         128|    0.061409|  6.0637e-02|    8.181872|    5.718255|    6.030515|    3.137109|    8.181872|    3.137109|
|         129|    0.060993|  6.0640e-02|    8.202399|    5.739744|    6.054092|    3.159493|    8.202399|    3.159493|
|         130|    0.060579|  6.0639e-02|    8.212528|    5.749443|    6.068197|    3.172250|    8.212528|    3.172250|
|         131|    0.060788|  6.0641e-02|    8.222499|    5.760555|    6.083806|    3.183224|    8.222499|    3.183224|
|         132|    0.061154|  6.0644e-02|    8.252191|    5.789052|    6.114610|    3.214043|    8.252191|    3.214043|
|         133|    0.061741|  6.0653e-02|    8.280828|    5.817451|    6.136553|    3.235388|    8.280828|    3.235388|
|         134|    0.060932|  6.0655e-02|    8.290698|    5.827160|    6.151348|    3.248594|    8.290698|    3.248594|
|         135|    0.061527|  6.0661e-02|    8.316653|    5.848912|    6.170087|    3.270683|    8.316653|    3.270683|
|         136|    0.060725|  6.0662e-02|    8.328209|    5.863671|    6.194326|    3.288534|    8.328209|    3.288534|
|         137|    0.061852|  6.0670e-02|    8.372601|    5.906145|    6.237768|    3.327836|    8.372601|    3.327836|
|         138|    0.061481|  6.0676e-02|    8.437369|    5.967282|    6.287278|    3.377401|    8.437369|    3.377401|
|         139|    0.060881|  6.0678e-02|    8.481217|    6.008563|    6.330156|    3.420745|    8.481217|    3.420745|
|         140|    0.061321|  6.0682e-02|    8.516502|    6.042090|    6.377211|    3.464806|    8.516502|    3.464806|
|         141|    0.061469|  6.0688e-02|    8.533967|    6.059237|    6.401180|    3.487924|    8.533967|    3.487924|
|         142|    0.060887|  6.0689e-02|    8.540968|    6.067885|    6.416951|    3.498279|    8.540968|    3.498279|
|         143|    0.060807|  6.0690e-02|    8.599705|    6.122234|    6.469054|    3.556313|    8.599705|    3.556313|
|         144|    0.061023|  6.0692e-02|    8.618676|    6.139307|    6.498767|    3.583424|    8.618676|    3.583424|
|         145|    0.071336|  6.0765e-02|    8.633674|    6.154747|    6.525411|    3.607816|    8.633674|    3.607816|
|         146|    0.067124|  6.0808e-02|    8.656521|    6.176514|    6.551879|    3.635128|    8.656521|    3.635128|
|         147|    0.061851|  6.0815e-02|    8.661875|    6.182776|    6.562485|    3.641907|    8.661875|    3.641907|
|         148|    0.060919|  6.0816e-02|    8.701414|    6.220528|    6.600699|    3.682612|    8.701414|    3.682612|
|         149|    0.060670|  6.0815e-02|    8.735368|    6.261198|    6.633537|    3.714225|    8.735368|    3.714225|
|         150|    0.060840|  6.0815e-02|    8.754232|    6.277746|    6.654114|    3.735549|    8.754232|    3.735549|
|         151|    0.060999|  6.0816e-02|    8.756621|    6.282067|    6.659801|    3.734471|    8.756621|    3.734471|
|         152|    0.060872|  6.0817e-02|    8.773819|    6.298527|    6.676270|    3.750310|    8.773819|    3.750310|
|         153|    0.060455|  6.0814e-02|    8.801436|    6.323181|    6.706469|    3.785863|    8.801436|    3.785863|
|         154|    0.061535|  6.0819e-02|    8.829445|    6.349845|    6.731046|    3.810588|    8.829445|    3.810588|
|         155|    0.060803|  6.0819e-02|    8.851852|    6.371632|    6.758371|    3.839922|    8.851852|    3.839922|
|         156|    0.060333|  6.0816e-02|    8.876102|    6.394105|    6.784679|    3.871923|    8.876102|    3.871923|
|         157|    0.061032|  6.0817e-02|    8.882422|    6.402726|    6.798982|    3.884818|    8.882422|    3.884818|
|         158|    0.061276|  6.0820e-02|    8.879897|    6.400183|    6.799315|    3.884003|    8.879897|    3.884003|
|         159|    0.060343|  6.0817e-02|    8.914397|    6.430521|    6.832805|    3.922212|    8.914397|    3.922212|
|         160|    0.060001|  6.0812e-02|    8.932061|    6.448013|    6.851976|    3.940739|    8.932061|    3.940739|
|         161|    0.060470|  6.0810e-02|    8.960850|    6.475635|    6.880367|    3.970062|    8.960850|    3.970062|
|         162|    0.060744|  6.0810e-02|    8.970889|    6.486749|    6.896638|    3.984955|    8.970889|    3.984955|
|         163|    0.061472|  6.0814e-02|    9.003884|    6.516575|    6.924880|    4.014067|    9.003884|    4.014067|
|         164|    0.060616|  6.0812e-02|    9.040727|    6.554000|    6.965774|    4.059522|    9.040727|    4.059522|
|         165|    0.061012|  6.0814e-02|    9.062619|    6.578187|    6.995881|    4.089497|    9.062619|    4.089497|
|         166|    0.060835|  6.0814e-02|    9.091515|    6.606593|    7.021095|    4.114260|    9.091515|    4.114260|
|         167|    0.060156|  6.0810e-02|    9.116439|    6.632686|    7.048174|    4.140888|    9.116439|    4.140888|
|         168|    0.060220|  6.0806e-02|    9.165974|    6.682669|    7.086973|    4.180722|    9.165974|    4.180722|
|         169|    0.060507|  6.0805e-02|    9.185779|    6.704552|    7.114252|    4.206870|    9.185779|    4.206870|
|         170|    0.060222|  6.0801e-02|    9.209921|    6.731716|    7.133269|    4.225987|    9.209921|    4.225987|
|         171|    0.060407|  6.0799e-02|    9.216379|    6.740077|    7.137362|    4.231000|    9.216379|    4.231000|
|         172|    0.059662|  6.0792e-02|    9.239012|    6.763106|    7.155099|    4.249644|    9.239012|    4.249644|
|         173|    0.059971|  6.0788e-02|    9.233755|    6.760097|    7.156081|    4.249741|    9.233755|    4.249741|
|         174|    0.060926|  6.0788e-02|    9.253238|    6.778441|    7.176661|    4.268497|    9.253238|    4.268497|
|         175|    0.061402|  6.0792e-02|    9.289386|    6.816656|    7.204519|    4.297196|    9.289386|    4.297196|
|         176|    0.061064|  6.0793e-02|    9.310601|    6.837491|    7.222994|    4.316571|    9.310601|    4.316571|
|         177|    0.060822|  6.0794e-02|    9.316297|    6.844878|    7.225281|    4.318190|    9.316297|    4.318190|
|         178|    0.060994|  6.0795e-02|    9.322774|    6.852120|    7.234885|    4.327091|    9.322774|    4.327091|
|         179|    0.060465|  6.0793e-02|    9.328705|    6.860902|    7.241822|    4.334568|    9.328705|    4.334568|
|         180|    0.060804|  6.0793e-02|    9.344967|    6.877921|    7.255402|    4.348613|    9.344967|    4.348613|
|         181|    0.060990|  6.0794e-02|    9.374304|    6.905274|    7.278724|    4.371701|    9.374304|    4.371701|
|         182|    0.060896|  6.0795e-02|    9.393377|    6.923054|    7.295600|    4.388492|    9.393377|    4.388492|
|         183|    0.060356|  6.0792e-02|    9.420878|    6.948603|    7.316518|    4.407121|    9.420878|    4.407121|
|         184|    0.061373|  6.0795e-02|    9.441222|    6.966507|    7.332729|    4.424111|    9.441222|    4.424111|
|         185|    0.060920|  6.0796e-02|    9.443401|    6.970238|    7.335958|    4.425294|    9.443401|    4.425294|
|         186|    0.060631|  6.0795e-02|    9.456647|    6.981751|    7.348715|    4.437580|    9.456647|    4.437580|
|         187|    0.060968|  6.0796e-02|    9.480950|    7.004651|    7.370460|    4.458931|    9.480950|    4.458931|
|         188|    0.060652|  6.0795e-02|    9.515366|    7.037591|    7.396116|    4.485437|    9.515366|    4.485437|
|         189|    0.060739|  6.0795e-02|    9.546387|    7.066664|    7.417954|    4.507329|    9.546387|    4.507329|
|         190|    0.060788|  6.0795e-02|    9.543368|    7.065391|    7.414672|    4.504072|    9.543368|    4.504072|
|         191|    0.060286|  6.0792e-02|    9.565897|    7.086425|    7.432718|    4.521919|    9.565897|    4.521919|
|         192|    0.060116|  6.0789e-02|    9.580357|    7.100019|    7.445654|    4.536398|    9.580357|    4.536398|
|         193|    0.059945|  6.0784e-02|    9.604716|    7.122493|    7.471095|    4.558979|    9.604716|    4.558979|
|         194|    0.060464|  6.0783e-02|    9.620789|    7.136981|    7.487033|    4.575429|    9.620789|    4.575429|
|         195|    0.060471|  6.0781e-02|    9.633509|    7.149542|    7.499148|    4.589056|    9.633509|    4.589056|
|         196|    0.060394|  6.0779e-02|    9.655365|    7.169912|    7.520632|    4.609499|    9.655365|    4.609499|
|         197|    0.060412|  6.0777e-02|    9.675108|    7.187786|    7.539278|    4.628519|    9.675108|    4.628519|
|         198|    0.060786|  6.0777e-02|    9.695838|    7.208340|    7.556410|    4.645743|    9.695838|    4.645743|
|         199|    0.060549|  6.0776e-02|    9.710075|    7.222118|    7.576539|    4.663780|    9.710075|    4.663780|
|         200|    0.060942|  6.0777e-02|    9.719379|    7.231574|    7.588759|    4.675180|    9.719379|    4.675180|
|         201|    0.060207|  6.0774e-02|    9.726976|    7.239194|    7.599750|    4.684291|    9.726976|    4.684291|
|         202|    0.060586|  6.0773e-02|    9.741644|    7.253793|    7.611152|    4.696952|    9.741644|    4.696952|
|         203|    0.060682|  6.0773e-02|    9.748479|    7.261229|    7.619814|    4.705547|    9.748479|    4.705547|
|         204|    0.060755|  6.0773e-02|    9.750336|    7.263609|    7.623474|    4.708468|    9.750336|    4.708468|
|         205|    0.060348|  6.0771e-02|    9.757391|    7.272884|    7.625249|    4.711315|    9.757391|    4.711315|
|         206|    0.060488|  6.0769e-02|    9.756356|    7.272834|    7.624386|    4.709038|    9.756356|    4.709038|
|         207|    0.060486|  6.0768e-02|    9.764054|    7.281088|    7.630958|    4.716384|    9.764054|    4.716384|
|         208|    0.060556|  6.0767e-02|    9.773054|    7.290281|    7.641372|    4.727359|    9.773054|    4.727359|
|         209|    0.060074|  6.0764e-02|    9.780087|    7.298965|    7.651931|    4.737340|    9.780087|    4.737340|
|         210|    0.060835|  6.0764e-02|    9.789865|    7.310843|    7.663081|    4.750338|    9.789865|    4.750338|
|         211|    0.060519|  6.0763e-02|    9.797541|    7.318356|    7.670373|    4.757396|    9.797541|    4.757396|
|         212|    0.060816|  6.0763e-02|    9.810954|    7.332628|    7.684685|    4.771638|    9.810954|    4.771638|
|         213|    0.060586|  6.0762e-02|    9.816203|    7.338769|    7.690246|    4.777696|    9.816203|    4.777696|
|         214|    0.060684|  6.0762e-02|    9.828013|    7.350934|    7.703800|    4.791309|    9.828013|    4.791309|
|         215|    0.060615|  6.0761e-02|    9.846763|    7.369966|    7.719520|    4.809644|    9.846763|    4.809644|
|         216|    0.061335|  6.0764e-02|    9.856021|    7.380592|    7.730576|    4.821179|    9.856021|    4.821179|
|         217|    0.059884|  6.0760e-02|    9.863104|    7.388363|    7.737937|    4.829171|    9.863104|    4.829171|
|         218|    0.059431|  6.0754e-02|    9.871889|    7.398581|    7.746806|    4.839220|    9.871889|    4.839220|
|         219|    0.060159|  6.0751e-02|    9.877264|    7.404111|    7.750398|    4.842548|    9.877264|    4.842548|
|         220|    0.060413|  6.0750e-02|    9.886708|    7.414672|    7.759897|    4.852451|    9.886708|    4.852451|
|         221|    0.060399|  6.0748e-02|    9.890251|    7.418721|    7.764999|    4.858055|    9.890251|    4.858055|
|         222|    0.060673|  6.0748e-02|    9.900765|    7.430104|    7.778192|    4.872135|    9.900765|    4.872135|
|         223|    0.060759|  6.0748e-02|    9.903949|    7.433286|    7.782018|    4.875679|    9.903949|    4.875679|
|         224|    0.060959|  6.0749e-02|    9.913258|    7.443792|    7.790683|    4.886485|    9.913258|    4.886485|
|         225|    0.060993|  6.0750e-02|    9.928797|    7.457947|    7.804077|    4.901123|    9.928797|    4.901123|
|         226|    0.060649|  6.0749e-02|    9.930223|    7.460047|    7.803914|    4.901907|    9.930223|    4.901907|
|         227|    0.060532|  6.0748e-02|    9.947670|    7.475365|    7.817715|    4.916109|    9.947670|    4.916109|
|         228|    0.060819|  6.0749e-02|    9.956053|    7.484624|    7.823836|    4.923641|    9.956053|    4.923641|
|         229|    0.060370|  6.0747e-02|    9.954130|    7.483427|    7.822079|    4.922735|    9.954130|    4.922735|
|         230|    0.060059|  6.0744e-02|    9.956820|    7.486175|    7.823959|    4.925418|    9.956820|    4.925418|
|         231|    0.060515|  6.0743e-02|    9.956011|    7.485891|    7.823716|    4.925217|    9.956011|    4.925217|
|         232|    0.060486|  6.0742e-02|    9.969844|    7.499227|    7.836218|    4.937816|    9.969844|    4.937816|
|         233|    0.060417|  6.0741e-02|    9.984150|    7.513186|    7.848792|    4.950731|    9.984150|    4.950731|
|         234|    0.067667|  6.0770e-02|    9.996025|    7.524471|    7.857901|    4.960181|    9.996025|    4.960181|
|         235|    0.060699|  6.0770e-02|   10.005316|    7.533112|    7.862604|    4.964540|   10.005316|    4.964540|
|         236|    0.060759|  6.0770e-02|   10.010522|    7.537409|    7.867295|    4.968741|   10.010522|    4.968741|
|         237|    0.060820|  6.0770e-02|   10.010557|    7.537667|    7.866455|    4.968342|   10.010557|    4.968342|
|         238|    0.060314|  6.0768e-02|   10.021068|    7.547423|    7.876449|    4.977529|   10.021068|    4.977529|
|         239|    0.059716|  6.0764e-02|   10.034361|    7.562322|    7.887001|    4.989653|   10.034361|    4.989653|
|         240|    0.059976|  6.0760e-02|   10.040550|    7.568497|    7.893157|    4.995442|   10.040550|    4.995442|
|         241|    0.059807|  6.0756e-02|   10.044161|    7.571706|    7.896241|    4.997409|   10.044161|    4.997409|
|         242|    0.060370|  6.0755e-02|   10.044929|    7.572371|    7.896967|    4.998451|   10.044929|    4.998451|
|         243|    0.061153|  6.0756e-02|   10.058477|    7.586230|    7.912709|    5.014015|   10.058477|    5.014015|
|         244|    0.060524|  6.0755e-02|   10.069477|    7.596994|    7.923736|    5.026118|   10.069477|    5.026118|
|         245|    0.060358|  6.0754e-02|   10.079216|    7.606952|    7.932781|    5.036660|   10.079216|    5.036660|
|         246|    0.060224|  6.0752e-02|   10.093431|    7.620025|    7.943465|    5.047613|   10.093431|    5.047613|
|         247|    0.060797|  6.0752e-02|   10.094681|    7.621571|    7.945914|    5.050083|   10.094681|    5.050083|
|         248|    0.061073|  6.0753e-02|   10.107554|    7.633303|    7.955467|    5.061918|   10.107554|    5.061918|
|         249|    0.060628|  6.0753e-02|   10.109042|    7.634638|    7.958651|    5.065306|   10.109042|    5.065306|

----------------------------- Solver Exit -------------------------------

Maximum number of iterations reached (ITER = 250) before convergence.
+-----------------------------------------------------------------------+
|      Convergence Field     |     Value    |   Criterion  |  Converged |
+-----------------------------------------------------------------------+
+-----------------------------------------------------------------------+
-------------------------------------------------------------------------
+-----------------------------------------------------------------------+
|        File Writing Summary       |              Filename             |
+-----------------------------------------------------------------------+
|SU2 binary restart                 |restart_adj_cd.dat                 |
|CSV file                           |surface_adjoint.csv                |
+-----------------------------------------------------------------------+
Warning: there are 4310 non-physical points in the solution.

--------------------------- Finalizing Solver ---------------------------
Deleted CNumerics container.
Deleted CIntegration container.
Deleted CSolver container.
Deleted CIteration container.
Deleted CInterface container.
Deleted CGeometry container.
Deleted CFreeFormDefBox class.
Deleted CSurfaceMovement class.
Deleted CVolumetricMovement class.
Deleted CConfig container.
Deleted nInst container.
Deleted COutput class.
-------------------------------------------------------------------------

------------------------- Exit Success (SU2_CFD) ------------------------

