
-------------------------------------------------------------------------
|    ___ _   _ ___                                                      |
|   / __| | | |_  )   Release 8.5.0 "Harrier"                           |
|   \__ \ |_| |/ /                                                      |
|   |___/\___//___|   Suite (Computational Fluid Dynamics Code)         |
|                                                                       |
-------------------------------------------------------------------------
| SU2 Project Website: https://su2code.github.io                        |
|                                                                       |
| The SU2 Project is maintained by the SU2 Foundation                   |
| (http://su2foundation.org)                                            |
-------------------------------------------------------------------------
| Copyright 2012-2026, SU2 Contributors                                 |
|                                                                       |
| SU2 is free software; you can redistribute it and/or                  |
| modify it under the terms of the GNU Lesser General Public            |
| License as published by the Free Software Foundation; either          |
| version 2.1 of the License, or (at your option) any later version.    |
|                                                                       |
| SU2 is distributed in the hope that it will be useful,                |
| but WITHOUT ANY WARRANTY; without even the implied warranty of        |
| MERCHANTABILITY or FITNESS FOR A PARTICULAR PURPOSE. See the GNU      |
| Lesser General Public License for more details.                       |
|                                                                       |
| You should have received a copy of the GNU Lesser General Public      |
| License along with SU2. If not, see <http://www.gnu.org/licenses/>.   |
-------------------------------------------------------------------------

Parsing config file for zone 0

----------------- Physical Case Definition ( Zone 0 ) -------------------
Compressible Euler equations.
Mach number: 0.8.
Angle of attack (AoA): 1.25 deg, and angle of sideslip (AoS): 0 deg.
No restart solution, use the values at infinity (freestream).
Dimensional simulation.
The reference area is 1 m^2.
The semi-span will be computed using the max y(3D) value.
The reference length is 1 m.
Reference origin for moment evaluation is (0.25, 0, 0).
Surface(s) where the force coefficients are evaluated: airfoil.

Surface(s) where the objective function is evaluated: airfoil.
Surface(s) plotted in the output file: airfoil.
Surface(s) affected by the design variables: airfoil.
Input mesh file name: mesh_NACA0012_inv.su2

--------------- Space Numerical Integration ( Zone 0 ) ------------------
Jameson-Schmidt-Turkel scheme (2nd order in space) for the flow inviscid terms.
JST viscous coefficients (2nd & 4th): 0.5, 0.02.
The method includes a grid stretching correction (p = 0.3).
Gradient for viscous and source terms: inverse-distance weighted Least-Squares.

--------------- Time Numerical Integration  ( Zone 0 ) ------------------
Local time stepping (steady state simulation).
Euler implicit method for the flow equations.
FGMRES is used for solving the linear system.
Using a ILU(0) preconditioning.
Convergence criteria of the linear solver: 1e-10.
Max number of linear iterations: 10.
W Multigrid Cycle, with 3 multigrid levels.
Damping factor for the residual restriction: 1.
Damping factor for the correction prolongation: 1.
No CFL adaptation.
+-------------------------------------------+
|  MG Level| Presmooth|PostSmooth|CorrectSmo|
+-------------------------------------------+
|         0|         1|         0|         0|
|         1|         2|         0|         0|
|         2|         3|         0|         0|
|         3|         3|         0|         0|
+-------------------------------------------+
Courant-Friedrichs-Lewy number:    1e+03

------------------ Convergence Criteria  ( Zone 0 ) ---------------------
Maximum number of solver subiterations: 250.
Begin convergence monitoring at iteration 10.
Residual minimum value: 1e-8.
Cauchy series min. value: 1e-06.
Number of Cauchy elements: 100.
Begin windowed time average at iteration 0.

-------------------- Output Information ( Zone 0 ) ----------------------
File writing frequency: 
+------------------------------------+
|                     File| Frequency|
+------------------------------------+
|                  RESTART|       250|
|                 PARAVIEW|       250|
|              SURFACE_CSV|       250|
+------------------------------------+
Writing the convergence history file every 1 inner iterations.
Writing the screen convergence history every 1 inner iterations.
The tabular file format is CSV (.csv).
Convergence history file name: history.
Forces breakdown file name: forces_breakdown.dat.
Surface file name: surface_flow.
Volume file name: flow.
Restart file name: restart_flow.

------------- Config File Boundary Information ( Zone 0 ) ---------------
+-----------------------------------------------------------------------+
|                        Marker Type|                        Marker Name|
+-----------------------------------------------------------------------+
|                         Euler wall|                            airfoil|
+-----------------------------------------------------------------------+
|                          Far-field|                           farfield|
+-----------------------------------------------------------------------+

-------------------- Output Preprocessing ( Zone 0 ) --------------------

WARNING: SURFACE_PRESSURE_DROP can only be computed for at least 2 surfaces (outlet, inlet, ...)

  Info: Ignoring the following screen output fields:
  CAUCHY_SENS_PRESS, CAUCHY_DRAG, RMS_ADJ_DENSITY, RMS_ADJ_ENERGY
Screen output fields: INNER_ITER, ITER_TIME, WALL_TIME, RMS_DENSITY, RMS_MOMENTUM-X, RMS_MOMENTUM-Y, RMS_ENERGY, LIFT, DRAG
History output group(s): ITER, RMS_RES
Convergence field(s): RMS_DENSITY
Warning: No (valid) fields chosen for time convergence monitoring. Time convergence monitoring inactive.
Volume output fields: COORDINATES, SOLUTION, PRIMITIVE

------------------- Geometry Preprocessing ( Zone 0 ) -------------------
Two dimensional problem.
5233 grid points.
10216 volume elements.
2 surface markers.
200 boundary elements in index 0 (Marker = airfoil).
50 boundary elements in index 1 (Marker = farfield).
10216 triangles.
Setting point connectivity.
Renumbering points (Reverse Cuthill McKee Ordering).
Recomputing point connectivity.
Setting element connectivity.
Checking the numerical grid orientation.
All volume elements are correctly oriented.
All surface elements are correctly oriented.
Identifying edges and vertices.
Setting the control volume structure.
Area of the computational grid: 1253.25.
Searching for the closest normal neighbors to the surfaces.
Storing a mapping from global to local point index.
Compute the surface curvature.
Max K: 7835.1. Mean K: 34.8252. Standard deviation K: 494.448.
Computing mesh quality statistics for the dual control volumes.
+--------------------------------------------------------------+
|           Mesh Quality Metric|        Minimum|        Maximum|
+--------------------------------------------------------------+
|    Orthogonality Angle (deg.)|        62.6714|        89.7089|
|     CV Face Area Aspect Ratio|        1.00001|        7.18337|
|           CV Sub-Volume Ratio|        1.00285|        6.47826|
+--------------------------------------------------------------+
Setting the multigrid structure. NMG=3
+-------------------------------------------+
|  MG Level|       CVs|Aggl. Rate|       CFL|
+-------------------------------------------+
|         0|      5233|    1/1.00|      1000|
|         1|      1649|    1/3.17|   666.667|

Euler Wall Agglomeration Statistics (45° curvature threshold):
----------------------------------------------------------------
  Marker: airfoil
    Seeds agglomerated:       99 (98.0%)
    Seeds rejected (>45° curv): 2 (2.0%)
----------------------------------------------------------------
|         2|       536|    1/3.08|444.444444|

Euler Wall Agglomeration Statistics (45° curvature threshold):
----------------------------------------------------------------
  Marker: airfoil
    Seeds agglomerated:       49 (94.2%)
    Seeds rejected (>45° curv): 3 (5.8%)
----------------------------------------------------------------
MG level 3 has only 176 CVs (< MG_MIN_MESHSIZE=500). Reducing MG levels to 2.

Euler Wall Agglomeration Statistics (45° curvature threshold):
----------------------------------------------------------------
  Marker: airfoil
    Seeds agglomerated:       25 (92.6%)
    Seeds rejected (>45° curv): 2 (7.4%)
----------------------------------------------------------------
Finding max control volume width.
Wetted area = 2.0 m.
Area projection in the x-plane = 0.1 m, y-plane = 1.0 m.
Max. coordinate in the x-direction = 1.0 m, y-direction = 0.1 m.
Min. coordinate in the x-direction = 0.0 m, y-direction = -0.1 m.
Computing wall distances.

-------------------- Solver Preprocessing ( Zone 0 ) --------------------
Inviscid flow: Computing density based on free-stream
temperature and pressure using the ideal gas law.
Force coefficients computed using free-stream values.

-- Models:
+------------------------------------------------------------------------------+
|          Viscosity Model|        Conductivity Model|              Fluid Model|
+------------------------------------------------------------------------------+
|                        -|                         -|             STANDARD_AIR|
+------------------------------------------------------------------------------+
-- Fluid properties:
+------------------------------------------------------------------------------+
|                  Name|    Dim. value|    Ref. value|      Unit|Non-dim. value|
+------------------------------------------------------------------------------+
|          Gas Constant|       287.058|             1|  N.m/kg.K|       287.058|
|      Spec. Heat Ratio|             -|             -|         -|           1.4|
+------------------------------------------------------------------------------+
-- Initial and free-stream conditions:
+------------------------------------------------------------------------------+
|                  Name|    Dim. value|    Ref. value|      Unit|Non-dim. value|
+------------------------------------------------------------------------------+
|       Static Pressure|        101325|             1|        Pa|        101325|
|               Density|       1.29225|             1|    kg/m^3|       1.29225|
|           Temperature|        273.15|             1|         K|        273.15|
|          Total Energy|        231152|             1|   m^2/s^2|        231152|
|            Velocity-X|       264.994|             1|       m/s|       264.994|
|            Velocity-Y|       5.78219|             1|       m/s|       5.78219|
|    Velocity Magnitude|       265.057|             1|       m/s|       265.057|
+------------------------------------------------------------------------------+
|           Mach Number|             -|             -|         -|           0.8|
+------------------------------------------------------------------------------+
All ranks use edge coloring.
Among the ranks that use edge coloring,
         the minimum efficiency is 0.942932,
         the maximum number of colors is 2,
         the minimum edge color group size is 512.
Initialize Jacobian structure (Euler). MG level: 0.
WARNING: On 1 MPI ranks the coloring efficiency was less than 0.875000 (min value was 0.588501).
         Those ranks will now use a fallback strategy, better performance may be possible
         with a different value of config option EDGE_COLORING_GROUP_SIZE (default 512).
Initialize Jacobian structure (Euler). MG level: 1.
WARNING: On 1 MPI ranks the coloring efficiency was less than 0.875000 (min value was 0.250977).
         Those ranks will now use a fallback strategy, better performance may be possible
         with a different value of config option EDGE_COLORING_GROUP_SIZE (default 512).
Initialize Jacobian structure (Euler). MG level: 2.

------------------- Numerics Preprocessing ( Zone 0 ) -------------------

----------------- Integration Preprocessing ( Zone 0 ) ------------------

------------------- Iteration Preprocessing ( Zone 0 ) ------------------
Euler/Navier-Stokes/RANS fluid iteration.

------------------------------ Begin Solver -----------------------------

Simulation Run using the Single-zone Driver
+--------------------------------------------------------------------------------------------------------------------+
|  Inner_Iter|   Time(sec)|   Time(sec)|    rms[Rho]|   rms[RhoU]|   rms[RhoV]|   rms[RhoE]|          CL|          CD|
+--------------------------------------------------------------------------------------------------------------------+
|           0|    0.014371|  1.4371e-02|   -1.026860|    1.319487|    0.848737|    4.463888|    0.164894|    0.108124|
|           1|    0.011976|  1.3174e-02|   -1.192874|    1.259987|    1.271651|    4.297553|    0.211414|    0.037770|
|           2|    0.008692|  1.1680e-02|   -1.275852|    1.201927|    1.127167|    4.219453|    0.254258|    0.024119|
|           3|    0.008613|  1.0913e-02|   -1.355845|    1.070513|    0.999098|    4.141690|    0.287456|    0.021277|
|           4|    0.008685|  1.0468e-02|   -1.447515|    0.996970|    0.947804|    4.055615|    0.307808|    0.021270|
|           5|    0.008570|  1.0151e-02|   -1.510134|    0.845783|    0.794403|    3.991787|    0.319309|    0.022011|
|           6|    0.008434|  9.9061e-03|   -1.548792|    0.779669|    0.763326|    3.954305|    0.324924|    0.022335|
|           7|    0.008510|  9.7316e-03|   -1.612272|    0.744833|    0.714390|    3.895052|    0.327633|    0.022232|
|           8|    0.008505|  9.5953e-03|   -1.686053|    0.652249|    0.604626|    3.824105|    0.328754|    0.021996|
|           9|    0.008409|  9.4767e-03|   -1.754427|    0.547998|    0.497182|    3.755971|    0.329179|    0.021792|
|          10|    0.008588|  9.3959e-03|   -1.826005|    0.469556|    0.441889|    3.684626|    0.329282|    0.021653|
|          11|    0.008588|  9.3286e-03|   -1.898430|    0.419017|    0.379675|    3.612991|    0.329421|    0.021575|
|          12|    0.008475|  9.2629e-03|   -1.977210|    0.353741|    0.288887|    3.534306|    0.329871|    0.021564|
|          13|    0.008517|  9.2096e-03|   -2.073579|    0.248433|    0.193472|    3.438025|    0.330497|    0.021588|
|          14|    0.008566|  9.1667e-03|   -2.168405|    0.138547|    0.095232|    3.342039|    0.331073|    0.021621|
|          15|    0.008476|  9.1235e-03|   -2.247122|    0.067039|    0.002045|    3.261068|    0.331468|    0.021650|
|          16|    0.008519|  9.0879e-03|   -2.322210|    0.012270|   -0.069071|    3.185412|    0.331664|    0.021669|
|          17|    0.008484|  9.0544e-03|   -2.400688|   -0.049494|   -0.132827|    3.107920|    0.331698|    0.021678|
|          18|    0.008495|  9.0249e-03|   -2.479178|   -0.114382|   -0.211256|    3.030302|    0.331618|    0.021679|
|          19|    0.008567|  9.0020e-03|   -2.556457|   -0.178652|   -0.303581|    2.953194|    0.331440|    0.021672|
|          20|    0.008501|  8.9782e-03|   -2.634015|   -0.245055|   -0.394176|    2.875391|    0.331182|    0.021658|
|          21|    0.008433|  8.9534e-03|   -2.710191|   -0.314000|   -0.472265|    2.798765|    0.330877|    0.021639|
|          22|    0.008645|  8.9400e-03|   -2.781117|   -0.382851|   -0.541234|    2.727343|    0.330573|    0.021619|
|          23|    0.008451|  8.9197e-03|   -2.844479|   -0.451505|   -0.609461|    2.663862|    0.330310|    0.021599|
|          24|    0.008535|  8.9043e-03|   -2.900069|   -0.523283|   -0.681024|    2.608894|    0.330103|    0.021582|
|          25|    0.008500|  8.8888e-03|   -2.949309|   -0.600800|   -0.755561|    2.560845|    0.329951|    0.021568|
|          26|    0.008457|  8.8728e-03|   -2.995290|   -0.682853|   -0.831276|    2.516114|    0.329842|    0.021556|
|          27|    0.008415|  8.8564e-03|   -3.041680|   -0.764977|   -0.906616|    2.470705|    0.329758|    0.021547|
|          28|    0.008402|  8.8407e-03|   -3.090730|   -0.842994|   -0.980294|    2.422341|    0.329686|    0.021540|
|          29|    0.008626|  8.8336e-03|   -3.142442|   -0.915623|   -1.050878|    2.371130|    0.329614|    0.021535|
|          30|    0.008455|  8.8214e-03|   -3.195247|   -0.983846|   -1.117233|    2.318703|    0.329536|    0.021532|
|          31|    0.008419|  8.8088e-03|   -3.247331|   -1.048471|   -1.179034|    2.266888|    0.329449|    0.021529|
|          32|    0.008427|  8.7972e-03|   -3.297395|   -1.109122|   -1.236677|    2.217013|    0.329353|    0.021525|
|          33|    0.008279|  8.7820e-03|   -3.345845|   -1.165261|   -1.291748|    2.168758|    0.329251|    0.021521|
|          34|    0.008242|  8.7666e-03|   -3.391546|   -1.219771|   -1.345343|    2.123239|    0.329150|    0.021517|
|          35|    0.008182|  8.7503e-03|   -3.434332|   -1.273654|   -1.398476|    2.080704|    0.329056|    0.021512|
|          36|    0.008248|  8.7367e-03|   -3.473960|   -1.327308|   -1.451721|    2.041353|    0.328974|    0.021508|
|          37|    0.008253|  8.7240e-03|   -3.510218|   -1.379432|   -1.504294|    2.005342|    0.328905|    0.021505|
|          38|    0.008251|  8.7119e-03|   -3.544040|   -1.428878|   -1.554785|    1.971787|    0.328849|    0.021502|
|          39|    0.008228|  8.6998e-03|   -3.576755|   -1.474251|   -1.602884|    1.939409|    0.328802|    0.021500|
|          40|    0.008223|  8.6882e-03|   -3.610675|   -1.516349|   -1.649829|    1.905929|    0.328761|    0.021498|
|          41|    0.008273|  8.6783e-03|   -3.647933|   -1.557881|   -1.696914|    1.869181|    0.328723|    0.021496|
|          42|    0.008229|  8.6678e-03|   -3.689479|   -1.600740|   -1.743932|    1.828136|    0.328687|    0.021494|
|          43|    0.008251|  8.6584e-03|   -3.734798|   -1.646005|   -1.789609|    1.783223|    0.328652|    0.021492|
|          44|    0.008246|  8.6492e-03|   -3.782180|   -1.694190|   -1.832880|    1.736090|    0.328621|    0.021490|
|          45|    0.008263|  8.6408e-03|   -3.829578|   -1.745192|   -1.873389|    1.688782|    0.328593|    0.021488|
|          46|    0.008225|  8.6320e-03|   -3.875402|   -1.797951|   -1.911497|    1.642938|    0.328570|    0.021486|
|          47|    0.008336|  8.6258e-03|   -3.919065|   -1.850581|   -1.947736|    1.599213|    0.328551|    0.021485|
|          48|    0.008221|  8.6175e-03|   -3.960953|   -1.901279|   -1.983242|    1.557280|    0.328535|    0.021484|
|          49|    0.008248|  8.6102e-03|   -4.002236|   -1.949346|   -2.019162|    1.516014|    0.328523|    0.021483|
|          50|    0.008260|  8.6033e-03|   -4.044370|   -1.995454|   -2.056538|    1.473964|    0.328512|    0.021483|
|          51|    0.008325|  8.5979e-03|   -4.088489|   -2.041120|   -2.096941|    1.429958|    0.328503|    0.021482|
|          52|    0.008232|  8.5910e-03|   -4.135084|   -2.087917|   -2.141335|    1.383456|    0.328495|    0.021481|
|          53|    0.008242|  8.5846e-03|   -4.183767|   -2.136797|   -2.189535|    1.334789|    0.328488|    0.021481|
|          54|    0.008277|  8.5790e-03|   -4.233437|   -2.188118|   -2.240977|    1.285023|    0.328481|    0.021481|
|          55|    0.008422|  8.5762e-03|   -4.282851|   -2.241815|   -2.294731|    1.235411|    0.328476|    0.021480|
|          56|    0.008280|  8.5710e-03|   -4.330950|   -2.297474|   -2.349627|    1.187044|    0.328471|    0.021480|
|          57|    0.008252|  8.5655e-03|   -4.377156|   -2.354335|   -2.404037|    1.140543|    0.328468|    0.021480|
|          58|    0.008279|  8.5606e-03|   -4.421559|   -2.411481|   -2.455979|    1.095875|    0.328466|    0.021480|
|          59|    0.008220|  8.5549e-03|   -4.464772|   -2.468265|   -2.503635|    1.052466|    0.328465|    0.021479|
|          60|    0.008247|  8.5499e-03|   -4.507692|   -2.524634|   -2.546019|    1.009434|    0.328464|    0.021479|
|          61|    0.008263|  8.5453e-03|   -4.551190|   -2.581118|   -2.583469|    0.965889|    0.328464|    0.021479|
|          62|    0.008244|  8.5405e-03|   -4.595786|   -2.638465|   -2.617126|    0.921281|    0.328465|    0.021480|
|          63|    0.008303|  8.5368e-03|   -4.641472|   -2.697234|   -2.648701|    0.875579|    0.328466|    0.021480|
|          64|    0.008236|  8.5321e-03|   -4.687711|   -2.757614|   -2.679854|    0.829289|    0.328467|    0.021480|
|          65|    0.008239|  8.5277e-03|   -4.733675|   -2.819277|   -2.711785|    0.783224|    0.328468|    0.021480|
|          66|    0.008259|  8.5237e-03|   -4.778621|   -2.881368|   -2.745680|    0.738140|    0.328469|    0.021480|
|          67|    0.008439|  8.5224e-03|   -4.822116|   -2.942618|   -2.782596|    0.694491|    0.328471|    0.021480|
|          68|    0.008269|  8.5188e-03|   -4.864177|   -3.001629|   -2.822833|    0.652287|    0.328472|    0.021480|
|          69|    0.008207|  8.5143e-03|   -4.904981|   -3.057122|   -2.866332|    0.611360|    0.328474|    0.021480|
|          70|    0.008227|  8.5103e-03|   -4.944634|   -3.108193|   -2.912711|    0.571600|    0.328475|    0.021480|
|          71|    0.008323|  8.5077e-03|   -4.983254|   -3.154608|   -2.961196|    0.532898|    0.328477|    0.021480|
|          72|    0.008286|  8.5046e-03|   -5.020820|   -3.196706|   -3.010893|    0.495283|    0.328478|    0.021480|
|          73|    0.008353|  8.5026e-03|   -5.057293|   -3.235052|   -3.060927|    0.458783|    0.328480|    0.021480|
|          74|    0.008297|  8.4999e-03|   -5.092730|   -3.270155|   -3.110306|    0.423344|    0.328481|    0.021480|
|          75|    0.008288|  8.4971e-03|   -5.127314|   -3.302428|   -3.158044|    0.388786|    0.328482|    0.021480|
|          76|    0.008308|  8.4946e-03|   -5.161394|   -3.332450|   -3.203626|    0.354768|    0.328483|    0.021480|
|          77|    0.008771|  8.4982e-03|   -5.195374|   -3.361097|   -3.246829|    0.320881|    0.328484|    0.021480|
|          78|    0.008258|  8.4951e-03|   -5.229806|   -3.389391|   -3.287638|    0.286575|    0.328485|    0.021480|
|          79|    0.008229|  8.4918e-03|   -5.265277|   -3.418446|   -3.326463|    0.251258|    0.328485|    0.021481|
|          80|    0.008239|  8.4887e-03|   -5.302197|   -3.449358|   -3.363674|    0.214508|    0.328486|    0.021481|
|          81|    0.008285|  8.4862e-03|   -5.340843|   -3.482991|   -3.399950|    0.176045|    0.328486|    0.021481|
|          82|    0.008262|  8.4835e-03|   -5.381198|   -3.519985|   -3.436136|    0.135861|    0.328487|    0.021481|
|          83|    0.008251|  8.4807e-03|   -5.423121|   -3.560726|   -3.472660|    0.094088|    0.328487|    0.021481|
|          84|    0.008499|  8.4809e-03|   -5.466396|   -3.605304|   -3.509630|    0.050939|    0.328487|    0.021481|
|          85|    0.008538|  8.4816e-03|   -5.510694|   -3.653566|   -3.547200|    0.006740|    0.328487|    0.021481|
|          86|    0.008243|  8.4788e-03|   -5.555747|   -3.705110|   -3.585436|   -0.038233|    0.328488|    0.021481|
|          87|    0.008168|  8.4753e-03|   -5.601355|   -3.759443|   -3.624405|   -0.083775|    0.328488|    0.021481|
|          88|    0.008236|  8.4726e-03|   -5.647302|   -3.816042|   -3.664077|   -0.129670|    0.328488|    0.021481|
|          89|    0.008271|  8.4704e-03|   -5.693418|   -3.874365|   -3.704294|   -0.175744|    0.328488|    0.021481|
|          90|    0.008295|  8.4685e-03|   -5.739499|   -3.933806|   -3.744890|   -0.221787|    0.328488|    0.021481|
|          91|    0.008214|  8.4657e-03|   -5.785383|   -3.993745|   -3.785723|   -0.267636|    0.328488|    0.021481|
|          92|    0.008213|  8.4630e-03|   -5.830805|   -4.053623|   -3.826672|   -0.313030|    0.328488|    0.021481|
|          93|    0.008204|  8.4602e-03|   -5.875489|   -4.112703|   -3.867552|   -0.357689|    0.328488|    0.021481|
|          94|    0.008191|  8.4574e-03|   -5.919165|   -4.170035|   -3.908157|   -0.401339|    0.328488|    0.021481|
|          95|    0.008239|  8.4551e-03|   -5.961553|   -4.224651|   -3.948348|   -0.443697|    0.328488|    0.021481|
|          96|    0.008354|  8.4541e-03|   -6.002434|   -4.275703|   -3.988065|   -0.484546|    0.328488|    0.021481|
|          97|    0.008284|  8.4523e-03|   -6.041668|   -4.322531|   -4.027170|   -0.523736|    0.328488|    0.021481|
|          98|    0.008554|  8.4534e-03|   -6.079200|   -4.364797|   -4.065553|   -0.561211|    0.328487|    0.021481|
|          99|    0.008598|  8.4548e-03|   -6.115065|   -4.402478|   -4.103173|   -0.597002|    0.328487|    0.021481|
|         100|    0.008556|  8.4558e-03|   -6.149326|   -4.435820|   -4.140063|   -0.631172|    0.328487|    0.021481|
|         101|    0.008601|  8.4572e-03|   -6.182107|   -4.465247|   -4.176254|   -0.663844|    0.328487|    0.021481|
|         102|    0.008578|  8.4584e-03|   -6.213569|   -4.491269|   -4.211825|   -0.695182|    0.328487|    0.021481|
|         103|    0.008459|  8.4584e-03|   -6.243906|   -4.514562|   -4.246929|   -0.725377|    0.328487|    0.021481|
|         104|    0.008515|  8.4590e-03|   -6.273290|   -4.535864|   -4.281750|   -0.754605|    0.328487|    0.021481|
|         105|    0.008446|  8.4588e-03|   -6.301945|   -4.555912|   -4.316440|   -0.783094|    0.328487|    0.021481|
|         106|    0.008562|  8.4598e-03|   -6.330125|   -4.575393|   -4.351100|   -0.811095|    0.328487|    0.021481|
|         107|    0.008540|  8.4605e-03|   -6.358108|   -4.594946|   -4.385815|   -0.838887|    0.328487|    0.021481|
|         108|    0.008538|  8.4613e-03|   -6.386134|   -4.615103|   -4.420665|   -0.866712|    0.328487|    0.021481|
|         109|    0.008747|  8.4639e-03|   -6.414405|   -4.636272|   -4.455680|   -0.894776|    0.328487|    0.021481|
|         110|    0.008549|  8.4646e-03|   -6.443042|   -4.658759|   -4.490979|   -0.923208|    0.328487|    0.021481|
|         111|    0.008563|  8.4655e-03|   -6.472116|   -4.682706|   -4.526605|   -0.952081|    0.328487|    0.021481|
|         112|    0.008624|  8.4669e-03|   -6.501667|   -4.708105|   -4.562535|   -0.981439|    0.328486|    0.021481|
|         113|    0.008338|  8.4658e-03|   -6.531733|   -4.734883|   -4.598740|   -1.011318|    0.328486|    0.021481|
|         114|    0.008234|  8.4637e-03|   -6.562348|   -4.762935|   -4.635187|   -1.041755|    0.328486|    0.021481|
|         115|    0.008199|  8.4615e-03|   -6.593545|   -4.792169|   -4.671845|   -1.072781|    0.328486|    0.021481|
|         116|    0.008257|  8.4597e-03|   -6.625368|   -4.822516|   -4.708634|   -1.104444|    0.328486|    0.021481|
|         117|    0.008234|  8.4578e-03|   -6.657861|   -4.853924|   -4.745460|   -1.136785|    0.328486|    0.021481|
|         118|    0.008233|  8.4559e-03|   -6.691066|   -4.886349|   -4.782207|   -1.169846|    0.328486|    0.021481|
|         119|    0.008204|  8.4538e-03|   -6.725009|   -4.919749|   -4.818761|   -1.203653|    0.328486|    0.021481|
|         120|    0.008260|  8.4522e-03|   -6.759688|   -4.954076|   -4.855013|   -1.238204|    0.328486|    0.021481|
|         121|    0.008258|  8.4506e-03|   -6.795083|   -4.989256|   -4.890837|   -1.273481|    0.328486|    0.021481|
|         122|    0.008240|  8.4489e-03|   -6.831158|   -5.025186|   -4.926090|   -1.309446|    0.328486|    0.021481|
|         123|    0.008320|  8.4479e-03|   -6.867860|   -5.061734|   -4.960630|   -1.346048|    0.328486|    0.021481|
|         124|    0.008301|  8.4467e-03|   -6.905128|   -5.098752|   -4.994325|   -1.383225|    0.328486|    0.021481|
|         125|    0.008218|  8.4449e-03|   -6.942889|   -5.136084|   -5.027062|   -1.420902|    0.328486|    0.021481|
|         126|    0.008196|  8.4429e-03|   -6.981059|   -5.173581|   -5.058755|   -1.458996|    0.328486|    0.021481|
|         127|    0.008232|  8.4413e-03|   -7.019541|   -5.211108|   -5.089346|   -1.497409|    0.328486|    0.021481|
|         128|    0.008210|  8.4395e-03|   -7.058222|   -5.248550|   -5.118813|   -1.536028|    0.328486|    0.021481|
|         129|    0.008200|  8.4376e-03|   -7.096969|   -5.285813|   -5.147171|   -1.574719|    0.328486|    0.021481|
|         130|    0.008127|  8.4353e-03|   -7.135624|   -5.322818|   -5.174469|   -1.613324|    0.328486|    0.021481|
|         131|    0.008327|  8.4344e-03|   -7.174013|   -5.359533|   -5.200781|   -1.651669|    0.328486|    0.021481|
|         132|    0.008463|  8.4347e-03|   -7.211946|   -5.395958|   -5.226203|   -1.689563|    0.328486|    0.021481|
|         133|    0.008449|  8.4348e-03|   -7.249203|   -5.432071|   -5.250844|   -1.726784|    0.328486|    0.021481|
|         134|    0.008473|  8.4351e-03|   -7.285545|   -5.467838|   -5.274835|   -1.763097|    0.328486|    0.021481|
|         135|    0.008503|  8.4356e-03|   -7.320740|   -5.503234|   -5.298312|   -1.798269|    0.328486|    0.021481|
|         136|    0.008431|  8.4355e-03|   -7.354567|   -5.538235|   -5.321409|   -1.832081|    0.328486|    0.021481|
|         137|    0.008487|  8.4359e-03|   -7.386841|   -5.572825|   -5.344257|   -1.864346|    0.328486|    0.021481|
|         138|    0.008522|  8.4365e-03|   -7.417422|   -5.606986|   -5.366978|   -1.894925|    0.328486|    0.021481|
|         139|    0.008493|  8.4369e-03|   -7.446229|   -5.640695|   -5.389688|   -1.923737|    0.328486|    0.021481|
|         140|    0.008457|  8.4371e-03|   -7.473249|   -5.673924|   -5.412496|   -1.950769|    0.328486|    0.021481|
|         141|    0.008498|  8.4375e-03|   -7.498538|   -5.706635|   -5.435496|   -1.976073|    0.328486|    0.021481|
|         142|    0.008429|  8.4374e-03|   -7.522214|   -5.738783|   -5.458772|   -1.999769|    0.328486|    0.021481|
|         143|    0.008458|  8.4376e-03|   -7.544449|   -5.770317|   -5.482398|   -2.022027|    0.328486|    0.021481|
|         144|    0.008424|  8.4375e-03|   -7.565454|   -5.801182|   -5.506437|   -2.043055|    0.328486|    0.021481|
|         145|    0.008530|  8.4381e-03|   -7.585461|   -5.831329|   -5.530942|   -2.063087|    0.328486|    0.021481|
|         146|    0.008499|  8.4385e-03|   -7.604715|   -5.860713|   -5.555955|   -2.082364|    0.328486|    0.021481|
|         147|    0.008426|  8.4384e-03|   -7.623451|   -5.889298|   -5.581510|   -2.101123|    0.328486|    0.021481|
|         148|    0.008455|  8.4386e-03|   -7.641896|   -5.917062|   -5.607635|   -2.119587|    0.328486|    0.021481|
|         149|    0.008432|  8.4385e-03|   -7.660252|   -5.943997|   -5.634348|   -2.137961|    0.328486|    0.021481|
|         150|    0.008421|  8.4384e-03|   -7.678700|   -5.970117|   -5.661664|   -2.156425|    0.328486|    0.021481|
|         151|    0.008547|  8.4391e-03|   -7.697398|   -5.995457|   -5.689590|   -2.175136|    0.328486|    0.021481|
|         152|    0.008472|  8.4393e-03|   -7.716478|   -6.020068|   -5.718126|   -2.194227|    0.328486|    0.021481|
|         153|    0.008416|  8.4392e-03|   -7.736052|   -6.044010|   -5.747266|   -2.213808|    0.328486|    0.021481|
|         154|    0.008458|  8.4393e-03|   -7.756210|   -6.067354|   -5.776993|   -2.233973|    0.328486|    0.021481|
|         155|    0.008392|  8.4390e-03|   -7.777029|   -6.090185|   -5.807284|   -2.254796|    0.328486|    0.021481|
|         156|    0.008505|  8.4394e-03|   -7.798569|   -6.112597|   -5.838110|   -2.276338|    0.328486|    0.021481|
|         157|    0.008492|  8.4397e-03|   -7.820880|   -6.134692|   -5.869431|   -2.298648|    0.328486|    0.021481|
|         158|    0.008467|  8.4399e-03|   -7.843999|   -6.156578|   -5.901202|   -2.321766|    0.328486|    0.021481|
|         159|    0.008333|  8.4392e-03|   -7.867957|   -6.178361|   -5.933365|   -2.345721|    0.328486|    0.021481|
|         160|    0.008431|  8.4392e-03|   -7.892778|   -6.200147|   -5.965856|   -2.370536|    0.328486|    0.021481|
|         161|    0.008367|  8.4388e-03|   -7.918479|   -6.222036|   -5.998599|   -2.396229|    0.328486|    0.021481|
|         162|    0.008358|  8.4383e-03|   -7.945071|   -6.244123|   -6.031509|   -2.422812|    0.328486|    0.021481|
|         163|    0.008476|  8.4385e-03|   -7.972562|   -6.266496|   -6.064491|   -2.450291|    0.328486|    0.021481|
|         164|    0.008242|  8.4373e-03|   -8.000952|   -6.289231|   -6.097444|   -2.478668|    0.328486|    0.021481|

----------------------------- Solver Exit -------------------------------
All convergence criteria satisfied.
+-----------------------------------------------------------------------+
|      Convergence Field     |     Value    |   Criterion  |  Converged |
+-----------------------------------------------------------------------+
|                    rms[Rho]|      -8.00095|          < -8|         Yes|
+-----------------------------------------------------------------------+
-------------------------------------------------------------------------
+-----------------------------------------------------------------------+
|        File Writing Summary       |              Filename             |
+-----------------------------------------------------------------------+
|SU2 binary restart                 |restart_flow.dat                   |
|Paraview                           |flow.vtu                           |
|CSV file                           |surface_flow.csv                   |
+-----------------------------------------------------------------------+

--------------------------- Finalizing Solver ---------------------------
Deleted CNumerics container.
Deleted CIntegration container.
Deleted CSolver container.
Deleted CIteration container.
Deleted CInterface container.
Deleted CGeometry container.
Deleted CFreeFormDefBox class.
Deleted CSurfaceMovement class.
Deleted CVolumetricMovement class.
Deleted CConfig container.
Deleted nInst container.
Deleted COutput class.
-------------------------------------------------------------------------

------------------------- Exit Success (SU2_CFD) ------------------------

